    4
 MP2/CC-PVTZ-F12  OPTSTEP=2  ENERGY=-39.38431963
 C          0.0000000000        0.0000000000        0.0000000000
 H          0.5405008114       -0.9361748670        0.0000000000
 H         -1.0810016228        0.0000000000        0.0000000000
 H          0.5405008114        0.9361748670        0.0000000000
