    4
 MP2/CC-PVTZ-F12  OPTSTEP=1  ENERGY=-39.38310738
 C         -0.0000000000        0.0000000000        0.0000000000
 H          0.5307312239       -0.9192534450        0.0000000000
 H         -1.0614624476        0.0000000000        0.0000000000
 H          0.5307312239        0.9192534450        0.0000000000
