    4
 MP2/CC-PVTZ-F12  OPTSTEP=3  ENERGY=-39.38437744
 C          0.0000000001        0.0000000000        0.0000000000
 H          0.5430363197       -0.9405664973        0.0000000000
 H         -1.0860726401        0.0000000000        0.0000000000
 H          0.5430363197        0.9405664973        0.0000000000
